Examen.txt
clear

basemva=100;

%Acelerar
accel=1;

%Exactitud
accuracy=0.0001;

maxiter=80;

% 1--slack
% 0--load
% 2--generation

%	bus	bus	voltage	angle	----Load----	-----Generator-----Injected
%	No	code	mag	degree	MW	Mvar	MW	Mvar	Qmin	Qmax	Mvar	
busdata=[1	1 	1	0	0	0	0	0	0	0	0
	2	2	1	0	0	0	100	0	0	110	0
	3	0	1	0	100	100	0	0	0	0	0
	4	0	1	0	100	100	0	0	0	0	0
];

%	Bus	bus	R	X	1/2 B	TAP
%	NL	NR	pu	pu	pu
linedata=[1	3	0.001	0.05	0.1/2	1
	2	3	0.001	0.05	0.1/2	1
	3	4	0	0.1	0	1.1];

lfybus
Ybus
Ybus(4,4)=Ybus(4,4)+0.1j;
Ybus
lfnewton
busout
lineflow


Ybus =

   0.3998 -19.9420i   0.0000 + 0.0000i  -0.3998 +19.9920i   0.0000 + 0.0000i
   0.0000 + 0.0000i   0.3998 -19.9420i  -0.3998 +19.9920i   0.0000 + 0.0000i
  -0.3998 +19.9920i  -0.3998 +19.9920i   0.7997 -48.1485i   0.0000 + 9.0909i
   0.0000 + 0.0000i   0.0000 + 0.0000i   0.0000 + 9.0909i   0.0000 -10.0000i


Ybus =

   0.3998 -19.9420i   0.0000 + 0.0000i  -0.3998 +19.9920i   0.0000 + 0.0000i
   0.0000 + 0.0000i   0.3998 -19.9420i  -0.3998 +19.9920i   0.0000 + 0.0000i
  -0.3998 +19.9920i  -0.3998 +19.9920i   0.7997 -48.1485i   0.0000 + 9.0909i
   0.0000 + 0.0000i   0.0000 + 0.0000i   0.0000 + 9.0909i   0.0000 - 9.9000i

                   Power Flow Solution by Newton-Raphson Method
                      Maximum Power Mismatch = 1.06745e-05 
                             No. of Iterations = 7 

    Bus  Voltage  Angle    ------Load------    ---Generation---   Injected
    No.  Mag.     Degree     MW       Mvar       MW       Mvar       Mvar 
                                                                          
     1  1.0000   0.0000    0.0000    0.0000  100.5397  142.7356    0.0000
     2  0.9800   0.0712    0.0000    0.0000  100.0000  100.8697    0.0000
     3  0.9264  -3.0191  100.0000  100.0000    0.0000    0.0000    0.0000
     4  0.6922 -12.8969  100.0000  100.0000    0.0000    0.0000    0.0000
      
    Total                200.0000  200.0000  200.5397  243.6053    0.0000


                           Line Flow and Losses 

     --Line--  Power at bus & line flow    --Line loss--  Transformer
     from  to    MW      Mvar     MVA       MW      Mvar      tap
   
     1        100.540  142.736  174.590
           3  100.540  142.736  174.591    0.319    6.676
   
     2        100.000  100.870  142.038
           3  100.000  100.870  142.038    0.220    1.927
   
     3       -100.000 -100.000  141.421
           1 -100.220 -136.060  168.987    0.319    6.676
           2  -99.780  -98.944  140.520    0.220    1.927
           4  100.000  135.004  168.006    0.000   39.795    1.100
   
     4       -100.000 -100.000  141.421
           3 -100.000  -95.209  138.075    0.000   39.795
   
    Total loss                             0.540   48.397
>> 

clear

basemva=100;

%Acelerar
accel=1;

%Exactitud
accuracy=0.0001;

maxiter=80;

% 1--slack
% 0--load
% 2--generation

%	bus	bus	voltage	angle	----Load----	-----Generator-----Injected
%	No	code	mag	degree	MW	Mvar	MW	Mvar	Qmin	Qmax	Mvar	
busdata=[1	1 	1	0	0	0	0	0	0	0	0
	2	2	1	0	0	0	100	0	0	110	0
	3	0	1	0	100	100	0	0	0	0	0
	4	0	1	0	100	100	0	0	0	0	0
];

%	Bus	bus	R	X	1/2 B	TAP
%	NL	NR	pu	pu	pu
linedata=[1	3	0.001	0.05	0.1/2	1
	2	3	0.001	0.05	0.1/2	1
	3	4	0	0.1	0	0.9];

lfybus
Ybus
Ybus(4,4)=Ybus(4,4)+0.1j;
Ybus
lfnewton
busout
lineflow

Ybus =

   0.3998 -19.9420i   0.0000 + 0.0000i  -0.3998 +19.9920i   0.0000 + 0.0000i
   0.0000 + 0.0000i   0.3998 -19.9420i  -0.3998 +19.9920i   0.0000 + 0.0000i
  -0.3998 +19.9920i  -0.3998 +19.9920i   0.7997 -52.2297i   0.0000 +11.1111i
   0.0000 + 0.0000i   0.0000 + 0.0000i   0.0000 +11.1111i   0.0000 -10.0000i


Ybus =

   0.3998 -19.9420i   0.0000 + 0.0000i  -0.3998 +19.9920i   0.0000 + 0.0000i
   0.0000 + 0.0000i   0.3998 -19.9420i  -0.3998 +19.9920i   0.0000 + 0.0000i
  -0.3998 +19.9920i  -0.3998 +19.9920i   0.7997 -52.2297i   0.0000 +11.1111i
   0.0000 + 0.0000i   0.0000 + 0.0000i   0.0000 +11.1111i   0.0000 - 9.9000i

                   Power Flow Solution by Newton-Raphson Method
                      Maximum Power Mismatch = 1.34542e-06 
                             No. of Iterations = 4 

    Bus  Voltage  Angle    ------Load------    ---Generation---   Injected
    No.  Mag.     Degree     MW       Mvar       MW       Mvar       Mvar 
                                                                          
     1  1.0000   0.0000    0.0000    0.0000  100.4545  107.6107    0.0000
     2  1.0000  -0.0138    0.0000    0.0000  100.0000  107.5962    0.0000
     3  0.9440  -2.9816  100.0000  100.0000    0.0000    0.0000    0.0000
     4  0.9475  -8.7570  100.0000  100.0000    0.0000    0.0000    0.0000
      
    Total                200.0000  200.0000  200.4545  215.2068    0.0000


                           Line Flow and Losses 

     --Line--  Power at bus & line flow    --Line loss--  Transformer
     from  to    MW      Mvar     MVA       MW      Mvar      tap
   
     1        100.454  107.611  147.211
           3  100.455  107.611  147.211    0.228    1.931
   
     2        100.000  107.596  146.891
           3  100.000  107.596  146.891    0.227    1.884
   
     3       -100.000 -100.000  141.421
           1 -100.227 -105.680  145.649    0.228    1.931
           2  -99.773 -105.713  145.361    0.227    1.884
           4  100.000  111.393  149.694    0.000   20.369    0.900
   
     4       -100.000 -100.000  141.421
           3 -100.000  -91.023  135.223    0.000   20.369
   
    Total loss                             0.455   24.184
>> 